/*--------------------------------*- C++ -*----------------------------------*\
  =========                 |
  \\      /  F ield         | OpenFOAM: The Open Source CFD Toolbox
   \\    /   O peration     | Website:  https://openfoam.org
    \\  /    A nd           | Version:  10
     \\/     M anipulation  |
\*---------------------------------------------------------------------------*/
FoamFile
{
    format      ascii;
    class       dictionary;
    location    "system";
    object      controlDict;
}
// * * * * * * * * * * * * * * * * * * * * * * * * * * * * * * * * * * * * * //

application     icoFoam;

startFrom       startTime;

startTime       0;

stopAt          endTime;

endTime         0.5;

deltaT          0.001;

writeControl    timeStep;

writeInterval   10;

purgeWrite      0;

writeFormat     ascii;

writePrecision  8;

writeCompression off;

timeFormat      general;

timePrecision   6;

runTimeModifiable true;

// ************************************************************************* //

functions
{

///////////////////////////////////////////////////////////////////////////

//For scalars
cellMin
{
    #includeEtc "caseDicts/postProcessing/minMax/cellMin.cfg"
    enabled       true;   //true or false
    log             true; //write to screen
    fields  (p);
}

cellMax
{
    #includeEtc "caseDicts/postProcessing/minMax/cellMax.cfg"
    enabled       true;   //true or false
    log             true; //write to screen
    fields  (p);
}

//For vectors
cellMinMag
{
    #includeEtc "caseDicts/postProcessing/minMax/cellMinMag.cfg"
    enabled       true;   //true or false
    log             true; //write to screen
    fields  (U);
}

cellMaxMag
{
    #includeEtc "caseDicts/postProcessing/minMax/cellMaxMag.cfg"
    enabled       true;   //true or false
    log             true; //write to screen
    fields  (U);
}

///////////////////////////////////////////////////////////////////////////

///////////////////////////////////////////////////////////////////////////

residuals
{
  functionObjectLibs ("libutilityFunctionObjects.so");

  type residuals;

  enabled true; 

  writeControl timeStep;
  writeInterval 1;

  fields (p U);
}

///////////////////////////////////////////////////////////////////////////

///////////////////////////////////////////////////////////////////////////

forces_object
{
    type forces;
    functionObjectLibs ("libforces.so");

    //writeControl outputTime;
    writeControl   timeStep;
    writetInterval  1;

    enabled true;
 
    //// Patches to sample
    patches ("Fixed_Walls");

    //// Name of fields
    pName p;
    Uname U;

    //only for incompressible flows
    rho rhoInf;
    rhoInf 1.0;

    //// Centre of rotation
    CofR (0 0 0);
}

///////////////////////////////////////////////////////////////////////////

};