/*--------------------------------*- C++ -*----------------------------------*\
  =========                 |
  \\      /  F ield         | OpenFOAM: The Open Source CFD Toolbox
   \\    /   O peration     | Website:  https://openfoam.org
    \\  /    A nd           | Version:  12
     \\/     M anipulation  |
\*---------------------------------------------------------------------------*/
FoamFile
{
    format      ascii;
    class       dictionary;
    location    "system";
    object      fvSolution;
}
// * * * * * * * * * * * * * * * * * * * * * * * * * * * * * * * * * * * * * //

solvers
{
    p
    {
        solver          GAMG;
        tolerance       1e-06;
        relTol          0.01;
        smoother        GaussSeidel;
        nPreSweeps      0;
        nPostSweeps     2;
        cacheAgglomeration on;
        agglomerator    faceAreaPair;
        nCellsInCoarsestLevel 100;
        mergeLevels     1;
    }

    pcorr
    {
        $p;
        tolerance       1e-8;
        relTol          0.0;
    }

    "(U|k|epsilon)"
    {
        solver          PBiCGStab;
        preconditioner  DILU;
        tolerance       1e-08;
        relTol          0.0;
    }
}

SIMPLE
{
    nNonOrthogonalCorrectors 2;
    nUCorrectors    2;
    pRefCell        0;
    pRefValue       0;
    consistent      yes;

    residualControl
    {
        p               1e-3;
        U               1e-3;
        k               1e-3;
        epsilon         1e-3;
    }
}

relaxationFactors
{
    equations
    {
        U               0.9; // 0.9 is more stable but 0.95 more convergent
        ".*"            0.9; // 0.9 is more stable but 0.95 more convergent
    }
}


// ************************************************************************* //
